/*--------------------------------*- C++ -*----------------------------------*\
| =========                 |                                                 |
| \\      /  F ield         | OpenFOAM: The Open Source CFD Toolbox           |
|  \\    /   O peration     | Version:  v2206                                 |
|   \\  /    A nd           | Website:  www.openfoam.com                      |
|    \\/     M anipulation  |                                                 |
\*---------------------------------------------------------------------------*/
FoamFile
{
    version     2.0;
    format      ascii;
    class       volScalarField;
    object      p_rgh;
}
// * * * * * * * * * * * * * * * * * * * * * * * * * * * * * * * * * * * * * //

dimensions      [1 -1 -2 0 0 0 0];

internalField   uniform 29.87e5;

boundaryField
    {
        inlet
        {
            type            zeroGradient;
        }
        
        outlet
        {
            type            fixedValue;
            value           uniform 29.86e5;
            /*type            uniformFixedValue;
            value           uniform 1e5;
            uniformValue    table ((0 3e5) (5 35e5));*/
        }
        
        wall
        {
            type            empty;
        }

        upAndDown
        {
            type            empty;
        }
    }


// ************************************************************************* //
