/*--------------------------------*- C++ -*----------------------------------*\
| =========                 |                                                 |
| \\      /  F ield         | OpenFOAM: The Open Source CFD Toolbox           |
|  \\    /   O peration     | Version:  2.4.0                                 |
|   \\  /    A nd           | Web:      www.OpenFOAM.org                      |
|    \\/     M anipulation  |                                                 |
\*---------------------------------------------------------------------------*/
FoamFile
{
    version     2.0;
    format      ascii;
    class       dictionary;
    location    "system";
    object      fvSolution;
}
// * * * * * * * * * * * * * * * * * * * * * * * * * * * * * * * * * * * * * //

solvers
{
    "alpha.*"
    {
      //        solver          PBiCG;
      //        preconditioner  DILU;
        solver          smoothSolver;
        smoother        symGaussSeidel;
        tolerance       1e-9;
        relTol          0.0;
        minIter         1;
    }

    p
    {
        solver          GAMG;
        smoother        DIC;
        nPreSweeps      0;
        nPostSweeps     2;
        nFinestSweeps   2;
        cacheAgglomeration true;
        nCellsInCoarsestLevel 1024;
        agglomerator    faceAreaPair;
        mergeLevels     1;
        tolerance       1e-8;
        relTol          0.01;
    }

    pFinal
    {
        $p;
        relTol          0;
    }

    "U.*"
    {
        solver          PBiCG;
        preconditioner  DILU;
        tolerance       1e-5;
        relTol          0;
    }

    "Theta.*"
    {
        solver          PBiCG;
        preconditioner  DILU;
        tolerance       1e-6;
        relTol          0;
    }
    "Sigma.*"
    {
        solver          PBiCG;
        preconditioner  DILU;
        tolerance       1e-6;
        relTol          0;
    }
    "flm.*"
    {
        solver          PBiCG;
        preconditioner  DILU;
        tolerance       1e-5;
        relTol          0;
    }
    "fmm.*"
    {
        solver          PBiCG;
        preconditioner  DILU;
        tolerance       1e-5;
        relTol          0;
    }

}

PIMPLE
{
    nOuterCorrectors 30;
    nCorrectors      2;
    nNonOrthogonalCorrectors 0;
    nAlphaCorr       2;

    residualControl
    {
        "alpha.*"
        {
                tolerance   1e-7;
                relTol      0;
        }
        p
        {
                tolerance   5e-6;
                relTol      0;
        }
    }

    pRefCell        0;
    pRefValue       0;

    momentumPredictor        no;


}

relaxationFactors
{
    equations
    {
		p                  0.8;
		"alpha.*"          0.5;
                "U.*"              0.7;
    }
}


// ************************************************************************* //
