/*--------------------------------*- C++ -*----------------------------------*\
| =========                 |                                                 |
| \\      /  F ield         | OpenFOAM: The Open Source CFD Toolbox           |
|  \\    /   O peration     | Version:  v2206                                 |
|   \\  /    A nd           | Website:  www.openfoam.com                      |
|    \\/     M anipulation  |                                                 |
\*---------------------------------------------------------------------------*/
FoamFile
{
    version     2.0;
    format      ascii;
    class       dictionary;
    object      sample;
}
// * * * * * * * * * * * * * * * * * * * * * * * * * * * * * * * * * * * * * //

type            sets;
libs            ("libsampling.so");
interpolationScheme cellPoint;
setFormat       raw;

fields          (CH4 CO2 p);

sets
{
    data
    {
        type    uniform;
        axis    x;
        start   (0 0 0.3);
        end     (0 0 -0.3);
        nPoints 25;
    }
}


// ************************************************************************* //
